GNU gdb (Ubuntu 7.9-1ubuntu1) 7.9
Copyright (C) 2015 Free Software Foundation, Inc.
License GPLv3+: GNU GPL version 3 or later <http://gnu.org/licenses/gpl.html>
This is free software: you are free to change and redistribute it.
There is NO WARRANTY, to the extent permitted by law.  Type "show copying"
and "show warranty" for details.
This GDB was configured as "x86_64-linux-gnu".
Type "show configuration" for configuration details.
For bug reporting instructions, please see:
<http://www.gnu.org/software/gdb/bugs/>.
Find the GDB manual and other documentation resources online at:
<http://www.gnu.org/software/gdb/documentation/>.
For help, type "help".
Type "apropos word" to search for commands related to "word"...
Reading symbols from gem5.debug...done.
(gdb) (gdb) (gdb) (gdb) (gdb) (gdb) (gdb) (gdb) (gdb) (gdb) (gdb) (gdb) (gdb) (gdb) (gdb) (gdb) (gdb) (gdb) (gdb) (gdb) (gdb) (gdb) (gdb) (gdb) (gdb) (gdb) (gdb) (gdb) (gdb) (gdb) (gdb) (gdb) (gdb) (gdb) (gdb) (gdb) (gdb) (gdb) (gdb) (gdb) (gdb) (gdb) (gdb) (gdb) (gdb) (gdb) (gdb) (gdb) (gdb) (gdb) (gdb) (gdb) (gdb) (gdb) (gdb) (gdb) (gdb) (gdb) (gdb) (gdb) (gdb) (gdb) (gdb) (gdb) (gdb) (gdb) (gdb) (gdb) (gdb) (gdb) (gdb) (gdb) (gdb) (gdb) (gdb) (gdb) (gdb) (gdb) (gdb) (gdb) (gdb) (gdb) Starting program: /home/rexjia/gem5-stable/build/ARM/gem5.debug êPÉJ!êÄä˘ò
[Thread debugging using libthread_db enabled]
Using host libthread_db library "/lib/x86_64-linux-gnu/libthread_db.so.1".
gem5 Simulator System.  http://gem5.org
gem5 is copyrighted software; use the --copyright option for details.

gem5 compiled Aug 11 2015 11:37:19
gem5 started Nov  2 2015 20:32:54
gem5 executing on ubuntu
command line: /home/rexjia/gem5-stable/build/ARM/gem5.debug êPÉJ!êÄä˘ò
Script êPÉJ!êÄä˘ò not found
Usage
=====
  gem5.debug [gem5 options] script.py [script options]

gem5 is copyrighted software; use the --copyright option for details.

Options
=======
--version               show program's version number and exit
--help, -h              show this help message and exit
--build-info, -B        Show build information
--copyright, -C         Show full copyright information
--readme, -R            Show the readme
--outdir=DIR, -d DIR    Set the output directory to DIR [Default: m5out]
--redirect-stdout, -r   Redirect stdout (& stderr, without -e) to file
--redirect-stderr, -e   Redirect stderr to file
--stdout-file=FILE      Filename for -r redirection [Default: simout]
--stderr-file=FILE      Filename for -e redirection [Default: simerr]
--interactive, -i       Invoke the interactive interpreter after running the
                        script
--pdb                   Invoke the python debugger before running the script
--path=PATH[:PATH], -p PATH[:PATH]
                        Prepend PATH to the system path when invoking the
                        script
--quiet, -q             Reduce verbosity
--verbose, -v           Increase verbosity

Statistics Options
------------------
--stats-file=FILE       Sets the output file for statistics [Default:
                        stats.txt]

Configuration Options
---------------------
--dump-config=FILE      Dump configuration output file [Default: config.ini]
--json-config=FILE      Create JSON output of the configuration [Default:
                        config.json]
--dot-config=FILE       Create DOT & pdf outputs of the configuration
                        [Default: config.dot]

Debugging Options
-----------------
--debug-break=TIME[,TIME]
                        Tick to create a breakpoint
--debug-help            Print help on debug flags
--debug-flags=FLAG[,FLAG]
                        Sets the flags for debug output (-FLAG disables a
                        flag)
--debug-start=TIME      Start debug output at TIME (must be in ticks)
--debug-file=FILE       Sets the output file for debug [Default: cout]
--debug-ignore=EXPR     Ignore EXPR sim objects
--remote-gdb-port=REMOTE_GDB_PORT
                        Remote gdb base port (set to 0 to disable listening)

Help Options
------------
--list-sim-objects      List all built-in SimObjects, their params and default
                        values
[Inferior 1 (process 31507) exited with code 02]
(gdb) (gdb) (gdb) (gdb) (gdb) (gdb) (gdb) (gdb) (gdb) (gdb) (gdb) (gdb) (gdb) (gdb) (gdb) (gdb) (gdb) (gdb) (gdb) (gdb) (gdb) (gdb) (gdb) (gdb) (gdb) (gdb) (gdb) Starting program: /home/rexjia/gem5-stable/build/ARM/gem5.debug ±ÄIä&(
(gdb) (gdb) (gdb) (gdb) (gdb) (gdb) (gdb) (gdb) (gdb) (gdb) (gdb) (gdb) (gdb) Make breakpoint pending on future shared library load? (y or [n]) [answered N; input not from terminal]
(gdb) (gdb) (gdb) (gdb) (gdb) (gdb) (gdb) (gdb) (gdb) (gdb) (gdb) (gdb) (gdb) (gdb) (gdb) (gdb) (gdb) (gdb) (gdb) (gdb) (gdb) (gdb) (gdb) (gdb) (gdb) (gdb) (gdb) (gdb) (gdb) (gdb) (gdb) (gdb) (gdb) (gdb) (gdb) Make breakpoint pending on future shared library load? (y or [n]) [answered N; input not from terminal]
(gdb) (gdb) (gdb) (gdb) (gdb) (gdb) (gdb) (gdb) (gdb) (gdb) (gdb) (gdb) (gdb) (gdb) (gdb) (gdb) Starting program: /home/rexjia/gem5-stable/build/ARM/gem5.debug êûÄ¢ ö€Z$¨∫ÅõSá)ÅÅÇKä™∑j°†):∫í@ã¯† Åã∞2'Iê(&	±≠
(gdb) (gdb) (gdb) (gdb) (gdb) (gdb) (gdb) (gdb) (gdb) (gdb) (gdb) (gdb) (gdb) (gdb) (gdb) (gdb) (gdb) (gdb) (gdb) (gdb) (gdb) (gdb) Starting program: /home/rexjia/gem5-stable/build/ARM/gem5.debug ïô©ë2áêãâÜ©;∞Éxë˘
[Thread debugging using libthread_db enabled]
Using host libthread_db library "/lib/x86_64-linux-gnu/libthread_db.so.1".
(gdb) (gdb) (gdb) (gdb) (gdb) (gdb) (gdb) (gdb) (gdb) Make breakpoint pending on future shared library load? (y or [n]) [answered N; input not from terminal]
(gdb) (gdb) (gdb) (gdb) (gdb) (gdb) (gdb) (gdb) (gdb) (gdb) (gdb) (gdb) (gdb) (gdb) (gdb) (gdb) (gdb) (gdb) (gdb) (gdb) (gdb) (gdb) (gdb) (gdb) (gdb) (gdb) (gdb) (gdb) (gdb) (gdb) (gdb) (gdb) (gdb) (gdb) (gdb) (gdb) (gdb) (gdb) (gdb) (gdb) (gdb) (gdb) (gdb) (gdb) (gdb) (gdb) (gdb) Not stopped at any breakpoint; argument ignored.
Continuing.
gem5 Simulator System.  http://gem5.org
gem5 is copyrighted software; use the --copyright option for details.

gem5 compiled Aug 11 2015 11:37:19
gem5 started Nov  2 2015 20:32:54
gem5 executing on ubuntu
command line: /home/rexjia/gem5-stable/build/ARM/gem5.debug ïô©ë2áêãâÜ©
Script ïô©ë2áêãâÜ© not found
Usage
=====
  gem5.debug [gem5 options] script.py [script options]

gem5 is copyrighted software; use the --copyright option for details.

Options
=======
--version               show program's version number and exit
--help, -h              show this help message and exit
--build-info, -B        Show build information
--copyright, -C         Show full copyright information
--readme, -R            Show the readme
--outdir=DIR, -d DIR    Set the output directory to DIR [Default: m5out]
--redirect-stdout, -r   Redirect stdout (& stderr, without -e) to file
--redirect-stderr, -e   Redirect stderr to file
--stdout-file=FILE      Filename for -r redirection [Default: simout]
--stderr-file=FILE      Filename for -e redirection [Default: simerr]
--interactive, -i       Invoke the interactive interpreter after running the
                        script
--pdb                   Invoke the python debugger before running the script
--path=PATH[:PATH], -p PATH[:PATH]
                        Prepend PATH to the system path when invoking the
                        script
--quiet, -q             Reduce verbosity
--verbose, -v           Increase verbosity

Statistics Options
------------------
--stats-file=FILE       Sets the output file for statistics [Default:
                        stats.txt]

Configuration Options
---------------------
--dump-config=FILE      Dump configuration output file [Default: config.ini]
--json-config=FILE      Create JSON output of the configuration [Default:
                        config.json]
--dot-config=FILE       Create DOT & pdf outputs of the configuration
                        [Default: config.dot]

Debugging Options
-----------------
--debug-break=TIME[,TIME]
                        Tick to create a breakpoint
--debug-help            Print help on debug flags
--debug-flags=FLAG[,FLAG]
                        Sets the flags for debug output (-FLAG disables a
                        flag)
--debug-start=TIME      Start debug output at TIME (must be in ticks)
--debug-file=FILE       Sets the output file for debug [Default: cout]
--debug-ignore=EXPR     Ignore EXPR sim objects
--remote-gdb-port=REMOTE_GDB_PORT
                        Remote gdb base port (set to 0 to disable listening)

Help Options
------------
--list-sim-objects      List all built-in SimObjects, their params and default
                        values
[Inferior 1 (process 31515) exited with code 02]
(gdb) (gdb) (gdb) (gdb) (gdb) (gdb) (gdb) (gdb) (gdb) (gdb) (gdb) (gdb) (gdb) (gdb) (gdb) (gdb) (gdb) (gdb) (gdb) (gdb) (gdb) (gdb) (gdb) (gdb) (gdb) (gdb) (gdb) (gdb) (gdb) (gdb) (gdb) (gdb) (gdb) (gdb) (gdb) (gdb) (gdb) (gdb) (gdb) (gdb) (gdb) (gdb) (gdb) (gdb) (gdb) (gdb) (gdb) (gdb) (gdb) (gdb) (gdb) (gdb) (gdb) (gdb) (gdb) (gdb) (gdb) (gdb) (gdb) (gdb) (gdb) (gdb) (gdb) (gdb) (gdb) (gdb) (gdb) (gdb) (gdb) (gdb) (gdb) (gdb) (gdb) (gdb) (gdb) (gdb) (gdb) (gdb) (gdb) (gdb) (gdb) (gdb) (gdb) (gdb) (gdb) (gdb) (gdb) (gdb) (gdb) (gdb) (gdb) (gdb) (gdb) (gdb) (gdb) (gdb) (gdb) (gdb) (gdb) (gdb) (gdb) (gdb) (gdb) (gdb) (gdb) (gdb) (gdb) (gdb) (gdb) (gdb) (gdb) (gdb) (gdb) (gdb) (gdb) (gdb) (gdb) (gdb) (gdb) (gdb) (gdb) (gdb) (gdb) (gdb) (gdb) (gdb) (gdb) (gdb) (gdb) (gdb) (gdb) (gdb) (gdb) (gdb) (gdb) (gdb) (gdb) (gdb) (gdb) (gdb) (gdb) (gdb) (gdb) (gdb) (gdb) (gdb) (gdb) (gdb) (gdb) (gdb) (gdb) Starting program: /home/rexjia/gem5-stable/build/ARM/gem5.debug ®§ªåÄä‘≤ÆÄ°8D£I2âêê¥ã(*cÑÄJ
(gdb) (gdb) (gdb) (gdb) (gdb) (gdb) (gdb) (gdb) (gdb) (gdb) (gdb) (gdb) (gdb) (gdb) (gdb) (gdb) (gdb) (gdb) (gdb) (gdb) (gdb) (gdb) (gdb) (gdb) (gdb) (gdb) (gdb) (gdb) (gdb) (gdb) (gdb) (gdb) (gdb) Make breakpoint pending on future shared library load? (y or [n]) [answered N; input not from terminal]
(gdb) (gdb) (gdb) (gdb) (gdb) (gdb) (gdb) (gdb) (gdb) (gdb) (gdb) (gdb) (gdb) (gdb) (gdb) (gdb) (gdb) (gdb) (gdb) (gdb) (gdb) (gdb) (gdb) (gdb) (gdb) (gdb) (gdb) (gdb) (gdb) (gdb) (gdb) (gdb) (gdb) (gdb) Make breakpoint pending on future shared library load? (y or [n]) [answered N; input not from terminal]
(gdb) (gdb) (gdb) Make breakpoint pending on future shared library load? (y or [n]) [answered N; input not from terminal]
(gdb) (gdb) (gdb) (gdb) (gdb) (gdb) (gdb) (gdb) (gdb) (gdb) (gdb) (gdb) (gdb) (gdb) (gdb) (gdb) (gdb) (gdb) (gdb) (gdb) (gdb) (gdb) (gdb) (gdb) (gdb) (gdb) (gdb) (gdb) (gdb) (gdb) (gdb) (gdb) (gdb) (gdb) (gdb) (gdb) (gdb) (gdb) (gdb) (gdb) (gdb) Make breakpoint pending on future shared library load? (y or [n]) [answered N; input not from terminal]
(gdb) (gdb) (gdb) (gdb) (gdb) (gdb) (gdb) (gdb) (gdb) (gdb) (gdb) (gdb) (gdb) (gdb) (gdb) (gdb) (gdb) (gdb) (gdb) (gdb) (gdb) (gdb) (gdb) (gdb) (gdb) (gdb) (gdb) (gdb) (gdb) (gdb) (gdb) (gdb) (gdb) Make breakpoint pending on future shared library load? (y or [n]) [answered N; input not from terminal]
(gdb) (gdb) (gdb) (gdb) (gdb) (gdb) (gdb) (gdb) (gdb) (gdb) (gdb) (gdb) (gdb) (gdb) (gdb) (gdb) (gdb) (gdb) (gdb) (gdb) (gdb) (gdb) (gdb) (gdb) (gdb) (gdb) (gdb) (gdb) (gdb) (gdb) (gdb) (gdb) (gdb) (gdb) (gdb) (gdb) (gdb) (gdb) (gdb) (gdb) (gdb) (gdb) (gdb) (gdb) (gdb) (gdb) (gdb) (gdb) (gdb) (gdb) (gdb) (gdb) (gdb) (gdb) (gdb) (gdb) (gdb) (gdb) (gdb) (gdb) (gdb) (gdb) (gdb) (gdb) (gdb) (gdb) (gdb) (gdb) (gdb) (gdb) (gdb) (gdb) (gdb) (gdb) (gdb) (gdb) (gdb) (gdb) (gdb) (gdb) (gdb) (gdb) (gdb) Make breakpoint pending on future shared library load? (y or [n]) [answered N; input not from terminal]
(gdb) (gdb) (gdb) (gdb) (gdb) (gdb) (gdb) (gdb) (gdb) (gdb) (gdb) (gdb) (gdb) (gdb) (gdb) (gdb) (gdb) (gdb) (gdb) (gdb) (gdb) (gdb) (gdb) (gdb) (gdb) (gdb) (gdb) (gdb) (gdb) (gdb) (gdb) (gdb) (gdb) (gdb) (gdb) (gdb) (gdb) (gdb) (gdb) (gdb) (gdb) (gdb) (gdb) (gdb) (gdb) (gdb) (gdb) (gdb) (gdb) (gdb) (gdb) (gdb) (gdb) (gdb) (gdb) (gdb) (gdb) (gdb) (gdb) (gdb) (gdb) (gdb) (gdb) (gdb) (gdb) (gdb) (gdb) (gdb) (gdb) (gdb) (gdb) (gdb) (gdb) (gdb) (gdb) (gdb) (gdb) (gdb) (gdb) (gdb) (gdb) (gdb) (gdb) (gdb) Starting program: /home/rexjia/gem5-stable/build/ARM/gem5.debug àö¯àì¨Ñ†XÇÅôÄ¢&FåØ©°C; ÿâ4Ç!
(gdb) Make breakpoint pending on future shared library load? (y or [n]) [answered N; input not from terminal]
(gdb) (gdb) (gdb) (gdb) (gdb) (gdb) (gdb) (gdb) (gdb) (gdb) (gdb) (gdb) (gdb) (gdb) (gdb) (gdb) (gdb) (gdb) (gdb) (gdb) (gdb) (gdb) (gdb) (gdb) (gdb) (gdb) (gdb) (gdb) (gdb) (gdb) (gdb) (gdb) (gdb) (gdb) (gdb) (gdb) (gdb) (gdb) (gdb) (gdb) (gdb) (gdb) (gdb) (gdb) (gdb) (gdb) (gdb) (gdb) (gdb) (gdb) (gdb) (gdb) (gdb) (gdb) (gdb) (gdb) (gdb) (gdb) (gdb) (gdb) (gdb) (gdb) (gdb) (gdb) (gdb) (gdb) (gdb) (gdb) (gdb) (gdb) (gdb) (gdb) (gdb) (gdb) (gdb) (gdb) (gdb) (gdb) (gdb) (gdb) (gdb) (gdb) (gdb) (gdb) (gdb) (gdb) (gdb) (gdb) (gdb) (gdb) (gdb) (gdb) (gdb) (gdb) (gdb) (gdb) (gdb) (gdb) (gdb) (gdb) (gdb) (gdb) (gdb) (gdb) (gdb) (gdb) (gdb) (gdb) (gdb) (gdb) (gdb) (gdb) (gdb) (gdb) (gdb) (gdb) (gdb) (gdb) (gdb) (gdb) (gdb) (gdb) (gdb) (gdb) (gdb) (gdb) (gdb) (gdb) (gdb) (gdb) (gdb) (gdb) (gdb) (gdb) (gdb) (gdb) (gdb) (gdb) (gdb) (gdb) (gdb) (gdb) (gdb) (gdb) (gdb) (gdb) (gdb) (gdb) (gdb) (gdb) (gdb) (gdb) (gdb) (gdb) (gdb) (gdb) (gdb) (gdb) (gdb) (gdb) (gdb) (gdb) (gdb) (gdb) (gdb) (gdb) (gdb) (gdb) (gdb) (gdb) (gdb) (gdb) (gdb) (gdb) (gdb) (gdb) (gdb) (gdb) (gdb) (gdb) (gdb) (gdb) (gdb) (gdb) (gdb) (gdb) (gdb) (gdb) (gdb) (gdb) (gdb) (gdb) (gdb) (gdb) (gdb) (gdb) (gdb) (gdb) (gdb) (gdb) (gdb) (gdb) (gdb) (gdb) (gdb) (gdb) (gdb) (gdb) (gdb) (gdb) (gdb) (gdb) (gdb) (gdb) (gdb) (gdb) (gdb) (gdb) (gdb) (gdb) (gdb) (gdb) (gdb) (gdb) (gdb) (gdb) (gdb) (gdb) (gdb) (gdb) (gdb) (gdb) (gdb) (gdb) (gdb) (gdb) (gdb) (gdb) (gdb) (gdb) (gdb) (gdb) (gdb) (gdb) (gdb) (gdb) (gdb) (gdb) (gdb) (gdb) (gdb) (gdb) (gdb) (gdb) (gdb) (gdb) (gdb) (gdb) (gdb) (gdb) (gdb) (gdb) (gdb) (gdb) (gdb) (gdb) (gdb) (gdb) (gdb) (gdb) (gdb) (gdb) (gdb) (gdb) (gdb) (gdb) (gdb) (gdb) (gdb) (gdb) (gdb) (gdb) (gdb) (gdb) (gdb) (gdb) (gdb) (gdb) (gdb) (gdb) (gdb) (gdb) (gdb) (gdb) (gdb) (gdb) (gdb) (gdb) (gdb) (gdb) (gdb) (gdb) (gdb) (gdb) (gdb) (gdb) (gdb) (gdb) (gdb) (gdb) (gdb) (gdb) (gdb) (gdb) (gdb) (gdb) (gdb) (gdb) (gdb) (gdb) (gdb) (gdb) (gdb) (gdb) (gdb) (gdb) (gdb) (gdb) (gdb) (gdb) (gdb) (gdb) (gdb) (gdb) (gdb) (gdb) (gdb) (gdb) (gdb) (gdb) (gdb) (gdb) (gdb) (gdb) (gdb) (gdb) (gdb) (gdb) (gdb) (gdb) (gdb) (gdb) (gdb) (gdb) (gdb) (gdb) (gdb) (gdb) (gdb) (gdb) (gdb) (gdb) (gdb) (gdb) (gdb) (gdb) (gdb) (gdb) (gdb) (gdb) (gdb) (gdb) (gdb) (gdb) (gdb) (gdb) (gdb) (gdb) (gdb) (gdb) (gdb) (gdb) (gdb) (gdb) (gdb) (gdb) (gdb) (gdb) (gdb) (gdb) (gdb) (gdb) (gdb) (gdb) (gdb) (gdb) Make breakpoint pending on future shared library load? (y or [n]) [answered N; input not from terminal]
(gdb) (gdb) (gdb) (gdb) (gdb) (gdb) (gdb) (gdb) (gdb) (gdb) (gdb) (gdb) (gdb) (gdb) (gdb) (gdb) (gdb) (gdb) (gdb) (gdb) (gdb) (gdb) (gdb) Starting program: /home/rexjia/gem5-stable/build/ARM/gem5.debug ÖÄxµ®-)°ö;1≈	Ä’öJâ†ò∞0çqíäÄ/1ìï®?∞ö.ë»híÅÅì8"%˘	µπ"Dì¢Øâôí®*ß!HÅ≤»**Q∫[Ä(•**YÄ∫k§ë≤ãY°!Z≥√I@IŸö	Ä†êJïÅ:Ç¨y£…Ã+’*ô1§¯ÄôZò ƒ°8L(
(gdb) (gdb) (gdb) (gdb) (gdb) (gdb) (gdb) (gdb) (gdb) (gdb) (gdb) (gdb) (gdb) (gdb) (gdb) (gdb) (gdb) (gdb) (gdb) (gdb) (gdb) (gdb) (gdb) (gdb) (gdb) (gdb) (gdb) (gdb) (gdb) (gdb) (gdb) (gdb) (gdb) (gdb) (gdb) (gdb) (gdb) (gdb) (gdb) (gdb) (gdb) (gdb) (gdb) (gdb) (gdb) (gdb) (gdb) (gdb) (gdb) (gdb) (gdb) (gdb) (gdb) (gdb) (gdb) (gdb) (gdb) (gdb) (gdb) (gdb) (gdb) (gdb) (gdb) (gdb) (gdb) (gdb) (gdb) (gdb) (gdb) (gdb) (gdb) (gdb) (gdb) (gdb) (gdb) (gdb) (gdb) (gdb) (gdb) (gdb) (gdb) (gdb) (gdb) (gdb) (gdb) (gdb) (gdb) (gdb) (gdb) (gdb) (gdb) (gdb) (gdb) (gdb) (gdb) (gdb) (gdb) (gdb) (gdb) (gdb) (gdb) (gdb) (gdb) (gdb) (gdb) (gdb) (gdb) (gdb) (gdb) (gdb) (gdb) (gdb) (gdb) (gdb) (gdb) (gdb) (gdb) (gdb) (gdb) (gdb) (gdb) (gdb) (gdb) (gdb) (gdb) (gdb) (gdb) (gdb) (gdb) (gdb) Make breakpoint pending on future shared library load? (y or [n]) [answered N; input not from terminal]
(gdb) (gdb) (gdb) (gdb) (gdb) (gdb) (gdb) (gdb) (gdb) (gdb) (gdb) (gdb) (gdb) (gdb) (gdb) (gdb) (gdb) (gdb) (gdb) (gdb) (gdb) (gdb) (gdb) (gdb) (gdb) (gdb) (gdb) (gdb) (gdb) (gdb) (gdb) (gdb) (gdb) (gdb) (gdb) (gdb) (gdb) (gdb) (gdb) (gdb) (gdb) (gdb) (gdb) (gdb) (gdb) (gdb) (gdb) (gdb) (gdb) (gdb) (gdb) (gdb) (gdb) (gdb) (gdb) (gdb) (gdb) (gdb) (gdb) (gdb) (gdb) (gdb) (gdb) (gdb) (gdb) (gdb) (gdb) (gdb) (gdb) (gdb) (gdb) (gdb) (gdb) (gdb) (gdb) (gdb) (gdb) List of classes of commands:

aliases -- Aliases of other commands
breakpoints -- Making program stop at certain points
data -- Examining data
files -- Specifying and examining files
internals -- Maintenance commands
obscure -- Obscure features
running -- Running the program
stack -- Examining the stack
status -- Status inquiries
support -- Support facilities
tracepoints -- Tracing of program execution without stopping the program
user-defined -- User-defined commands

Type "help" followed by a class name for a list of commands in that class.
Type "help all" for the list of all commands.
Type "help" followed by command name for full documentation.
Type "apropos word" to search for commands related to "word".
Command name abbreviations are allowed if unambiguous.
(gdb) (gdb) (gdb) (gdb) (gdb) (gdb) (gdb) (gdb) (gdb) (gdb) (gdb) (gdb) (gdb) (gdb) (gdb) (gdb) (gdb) (gdb) (gdb) (gdb) (gdb) (gdb) (gdb) (gdb) (gdb) (gdb) (gdb) (gdb) (gdb) (gdb) (gdb) (gdb) (gdb) (gdb) (gdb) (gdb) (gdb) (gdb) (gdb) (gdb) (gdb) (gdb) (gdb) (gdb) (gdb) (gdb) (gdb) (gdb) (gdb) (gdb) (gdb) (gdb) (gdb) (gdb) Make breakpoint pending on future shared library load? (y or [n]) [answered N; input not from terminal]
(gdb) (gdb) (gdb) (gdb) (gdb) (gdb) (gdb) (gdb) (gdb) (gdb) (gdb) (gdb) (gdb) (gdb) (gdb) (gdb) (gdb) (gdb) (gdb) (gdb) (gdb) (gdb) (gdb) (gdb) (gdb) (gdb) (gdb) (gdb) (gdb) (gdb) (gdb) (gdb) (gdb) (gdb) (gdb) (gdb) (gdb) (gdb) (gdb) (gdb) (gdb) (gdb) (gdb) (gdb) (gdb) (gdb) (gdb) (gdb) (gdb) (gdb) (gdb) (gdb) (gdb) (gdb) (gdb) (gdb) (gdb) (gdb) (gdb) (gdb) (gdb) (gdb) (gdb) (gdb) (gdb) (gdb) (gdb) (gdb) (gdb) (gdb) (gdb) (gdb) (gdb) (gdb) (gdb) (gdb) (gdb) (gdb) (gdb) (gdb) (gdb) (gdb) (gdb) (gdb) (gdb) (gdb) (gdb) (gdb) (gdb) (gdb) (gdb) (gdb) (gdb) (gdb) List of classes of commands:

aliases -- Aliases of other commands
breakpoints -- Making program stop at certain points
data -- Examining data
files -- Specifying and examining files
internals -- Maintenance commands
obscure -- Obscure features
running -- Running the program
stack -- Examining the stack
status -- Status inquiries
support -- Support facilities
tracepoints -- Tracing of program execution without stopping the program
user-defined -- User-defined commands

Type "help" followed by a class name for a list of commands in that class.
Type "help all" for the list of all commands.
Type "help" followed by command name for full documentation.
Type "apropos word" to search for commands related to "word".
Command name abbreviations are allowed if unambiguous.
(gdb) (gdb) (gdb) (gdb) (gdb) (gdb) (gdb) (gdb) (gdb) (gdb) (gdb) (gdb) (gdb) (gdb) (gdb) (gdb) (gdb) (gdb) (gdb) (gdb) (gdb) (gdb) (gdb) (gdb) (gdb) (gdb) (gdb) (gdb) (gdb) (gdb) (gdb) (gdb) (gdb) (gdb) (gdb) (gdb) (gdb) (gdb) (gdb) (gdb) (gdb) (gdb) (gdb) (gdb) (gdb) (gdb) (gdb) (gdb) (gdb) (gdb) (gdb) (gdb) (gdb) (gdb) (gdb) (gdb) (gdb) (gdb) (gdb) (gdb) (gdb) (gdb) (gdb) (gdb) (gdb) (gdb) (gdb) (gdb) (gdb) (gdb) (gdb) (gdb) (gdb) (gdb) (gdb) (gdb) (gdb) (gdb) (gdb) (gdb) (gdb) (gdb) (gdb) (gdb) (gdb) (gdb) (gdb) (gdb) (gdb) (gdb) (gdb) (gdb) (gdb) (gdb) (gdb) (gdb) (gdb) (gdb) (gdb) (gdb) (gdb) (gdb) (gdb) (gdb) (gdb) (gdb) (gdb) (gdb) (gdb) (gdb) (gdb) (gdb) (gdb) (gdb) (gdb) (gdb) (gdb) (gdb) (gdb) (gdb) (gdb) (gdb) (gdb) (gdb) (gdb) (gdb) (gdb) (gdb) (gdb) (gdb) (gdb) (gdb) (gdb) (gdb) (gdb) (gdb) (gdb) (gdb) (gdb) (gdb) (gdb) (gdb) (gdb) (gdb) (gdb) (gdb) (gdb) (gdb) (gdb) (gdb) (gdb) (gdb) (gdb) (gdb) (gdb) (gdb) (gdb) (gdb) (gdb) (gdb) (gdb) (gdb) (gdb) (gdb) (gdb) (gdb) (gdb) (gdb) (gdb) (gdb) (gdb) (gdb) (gdb) (gdb) (gdb) (gdb) (gdb) (gdb) (gdb) (gdb) (gdb) (gdb) (gdb) (gdb) (gdb) (gdb) (gdb) (gdb) (gdb) (gdb) (gdb) Starting program: /home/rexjia/gem5-stable/build/ARM/gem5.debug ë:∞8—ã(√ë*rÉë/(¶âêôë†òÇ¸9"»°≠!©:"É±pí˘*â¢´x4“©*:·∫ÄJî¯)9¢¯
(gdb) (gdb) (gdb) (gdb) (gdb) (gdb) (gdb) (gdb) (gdb) (gdb) (gdb) (gdb) (gdb) (gdb) (gdb) (gdb) (gdb) (gdb) (gdb) (gdb) (gdb) (gdb) (gdb) (gdb) (gdb) (gdb) (gdb) (gdb) (gdb) (gdb) (gdb) (gdb) (gdb) (gdb) (gdb) (gdb) (gdb) (gdb) (gdb) (gdb) (gdb) (gdb) (gdb) (gdb) (gdb) (gdb) (gdb) (gdb) (gdb) (gdb) (gdb) (gdb) Make breakpoint pending on future shared library load? (y or [n]) [answered N; input not from terminal]
(gdb) (gdb) (gdb) (gdb) (gdb) (gdb) (gdb) (gdb) (gdb) (gdb) (gdb) (gdb) (gdb) (gdb) (gdb) (gdb) (gdb) (gdb) (gdb) (gdb) (gdb) (gdb) (gdb) (gdb) (gdb) (gdb) (gdb) (gdb) (gdb) (gdb) (gdb) (gdb) (gdb) (gdb) (gdb) (gdb) (gdb) (gdb) (gdb) (gdb) (gdb) (gdb) (gdb) (gdb) (gdb) (gdb) (gdb) (gdb) (gdb) (gdb) (gdb) (gdb) (gdb) (gdb) (gdb) (gdb) (gdb) (gdb) (gdb) (gdb) (gdb) (gdb) (gdb) (gdb) (gdb) (gdb) gem5 Simulator System.  http://gem5.org
gem5 is copyrighted software; use the --copyright option for details.

gem5 compiled Aug 11 2015 11:37:19
gem5 started Nov  2 2015 20:32:55
gem5 executing on ubuntu
command line: /home/rexjia/gem5-stable/build/ARM/gem5.debug àö¯àì¨Ñ†XÇÅôÄ¢
Script àö¯àì¨Ñ†XÇÅôÄ¢ not found
Usage
=====
  gem5.debug [gem5 options] script.py [script options]

gem5 is copyrighted software; use the --copyright option for details.

Options
=======
--version               show program's version number and exit
--help, -h              show this help message and exit
--build-info, -B        Show build information
--copyright, -C         Show full copyright information
--readme, -R            Show the readme
--outdir=DIR, -d DIR    Set the output directory to DIR [Default: m5out]
--redirect-stdout, -r   Redirect stdout (& stderr, without -e) to file
--redirect-stderr, -e   Redirect stderr to file
--stdout-file=FILE      Filename for -r redirection [Default: simout]
--stderr-file=FILE      Filename for -e redirection [Default: simerr]
--interactive, -i       Invoke the interactive interpreter after running the
                        script
--pdb                   Invoke the python debugger before running the script
--path=PATH[:PATH], -p PATH[:PATH]
                        Prepend PATH to the system path when invoking the
                        script
--quiet, -q             Reduce verbosity
--verbose, -v           Increase verbosity

Statistics Options
------------------
--stats-file=FILE       Sets the output file for statistics [Default:
                        stats.txt]

Configuration Options
---------------------
--dump-config=FILE      Dump configuration output file [Default: config.ini]
--json-config=FILE      Create JSON output of the configuration [Default:
                        config.json]
--dot-config=FILE       Create DOT & pdf outputs of the configuration
                        [Default: config.dot]

Debugging Options
-----------------
--debug-break=TIME[,TIME]
                        Tick to create a breakpoint
--debug-help            Print help on debug flags
--debug-flags=FLAG[,FLAG]
                        Sets the flags for debug output (-FLAG disables a
                        flag)
--debug-start=TIME      Start debug output at TIME (must be in ticks)
--debug-file=FILE       Sets the output file for debug [Default: cout]
--debug-ignore=EXPR     Ignore EXPR sim objects
--remote-gdb-port=REMOTE_GDB_PORT
                        Remote gdb base port (set to 0 to disable listening)

Help Options
------------
--list-sim-objects      List all built-in SimObjects, their params and default
                        values
